[Certificado]
SSLLib=2
CryptLib=2
HttpLib=1
XmlSignLib=3
Caminho=
Senha=123456
NumSerie=43F5E61636870AE1
[Geral]
AtualizarXML=1
ExibirErroSchema=1
FormatoAlerta=TAG:%TAGNIVEL% ID:%ID%/%TAG%(%DESCRICAO%) - %MSG%.
FormaEmissao=0
ModeloDF=0
VersaoDF=2
IdToken=
Token=
RetirarAcentos=1
Salvar=1
PathSalvar=D:\NAO ABRA\NAO\Projetos\Devolucao\Exec\XML\Resp
PathSchemas=D:\NAO ABRA\NAO\Projetos\Devolucao\Exec\Schemas\NFe
[WebService]
UF=MA
Ambiente=0
Visualizar=0
SalvarSOAP=0
AjustarAut=0
Aguardar=0
Tentativas=5
Intervalo=0
TimeOut=5000
SSLType=0
[Proxy]
Host=
Porta=
User=
Pass=
[Arquivos]
Salvar=1
PastaMensal=1
AddLiteral=1
EmissaoPathNFe=1
SalvarPathEvento=1
SepararPorCNPJ=1
SepararPorModelo=1
PathNFe=D:\NAO ABRA\NAO\Projetos\Devolucao\Exec\XML\NFe
PathCan=D:\NAO ABRA\NAO\Projetos\Devolucao\Exec\XML\Can
PathInu=D:\NAO ABRA\NAO\Projetos\Devolucao\Exec\XML\Inu
PathDPEC=D:\NAO ABRA\NAO\Projetos\Devolucao\Exec\XML\DPEC
PathCCe=D:\NAO ABRA\NAO\Projetos\Devolucao\Exec\XML\CCe
PathEvento=D:\NAO ABRA\NAO\Projetos\Devolucao\Exec\XML\Even
[Emitente]
CNPJ=17223346000151
IE=125504969
RazaoSocial=TELEMAC SERVICOS E COMERCIO LTDA ME
Fantasia=TELEMAC SERVICOS E COMERCIO LTDA ME
Fone=9832215606
CEP=65020250
Logradouro=RUA OSWALDO CRUZ
Numero=921
Complemento=LOJA
Bairro=CENTRO
CodCidade=2111300
Cidade=SAO LUIS
UF=MA
Regime=0
[Email]
Host=
Port=
User=
Pass=
Assunto=
SSL=0
Mensagem=
[DANFE]
Tipo=0
LogoMarca=
